data_HCNO
_audit_creation_method           'pos2cif.pl'
_cell_length_a               30
_cell_length_b               30
_cell_length_c               30
_cell_angle_alpha            90
_cell_angle_beta             90
_cell_angle_gamma            90
_symmetry_space_group_H-M        'P1'
_symmetry_Int_Tables_number      '1'
_symmetry_cell_setting           'triclinic'
loop_
_symmetry_equiv_pos_as_xyz
x,y,z

loop_
_atom_site_label
_atom_site_type_symbol
_atom_site_occupancy
_atom_site_fract_x
_atom_site_fract_y
_atom_site_fract_z
_atom_site_U_iso_or_equiv
H1  H  1.0000  0.34224  0.59004  0.53650  0.0000
H2  H  1.0000  0.34682  0.54074  0.50343  0.0000
H3  H  1.0000  0.35015  0.53694  0.56250  0.0000
H4  H  1.0000  0.41801  0.49862  0.53801  0.0000
H5  H  1.0000  0.49066  0.48908  0.52907  0.0000
H6  H  1.0000  0.53674  0.53996  0.48278  0.0000
H7  H  1.0000  0.49298  0.58024  0.48198  0.0000
H8  H  1.0000  0.48520  0.52732  0.45602  0.0000
H9  H  1.0000  0.47819  0.60333  0.56084  0.0000
H10  H  1.0000  0.51010  0.59650  0.64857  0.0000
H11  H  1.0000  0.55972  0.59994  0.61645  0.0000
H12  H  1.0000  0.51959  0.64413  0.61389  0.0000
C1  C  1.0000  0.35897  0.55773  0.53359  0.0000
C2  C  1.0000  0.40889  0.56543  0.53089  0.0000
C3  C  1.0000  0.48312  0.52490  0.52845  0.0000
C4  C  1.0000  0.50043  0.54455  0.48458  0.0000
C5  C  1.0000  0.50868  0.54311  0.56951  0.0000
C6  C  1.0000  0.52396  0.60792  0.61651  0.0000
N1  N  1.0000  0.43427  0.52784  0.53271  0.0000
N2  N  1.0000  0.50211  0.58673  0.57894  0.0000
O1  O  1.0000  0.42506  0.60346  0.52721  0.0000
O2  O  1.0000  0.53426  0.51856  0.59071  0.0000
