data_HCN
_audit_creation_method           'pos2cif.pl'
_cell_length_a               30
_cell_length_b               30
_cell_length_c               30
_cell_angle_alpha            90
_cell_angle_beta             90
_cell_angle_gamma            90
_symmetry_space_group_H-M        'P1'
_symmetry_Int_Tables_number      '1'
_symmetry_cell_setting           'triclinic'
loop_
_symmetry_equiv_pos_as_xyz
x,y,z

loop_
_atom_site_label
_atom_site_type_symbol
_atom_site_occupancy
_atom_site_fract_x
_atom_site_fract_y
_atom_site_fract_z
_atom_site_U_iso_or_equiv
H1  H  1.0000  0.42551  0.50245  0.50731  0.0000
H2  H  1.0000  0.42558  0.54463  0.46514  0.0000
H3  H  1.0000  0.42559  0.56007  0.52275  0.0000
C1  C  1.0000  0.43809  0.53570  0.49840  0.0000
C2  C  1.0000  0.52468  0.53540  0.49840  0.0000
N1  N  1.0000  0.48533  0.53557  0.49843  0.0000
