data_HCNO
_audit_creation_method           'pos2cif.pl'
_cell_length_a               30
_cell_length_b               30
_cell_length_c               30
_cell_angle_alpha            90
_cell_angle_beta             90
_cell_angle_gamma            90
_symmetry_space_group_H-M        'P1'
_symmetry_Int_Tables_number      '1'
_symmetry_cell_setting           'triclinic'
loop_
_symmetry_equiv_pos_as_xyz
x,y,z

loop_
_atom_site_label
_atom_site_type_symbol
_atom_site_occupancy
_atom_site_fract_x
_atom_site_fract_y
_atom_site_fract_z
_atom_site_U_iso_or_equiv
H1  H  1.0000  0.34893  0.59436  0.53199  0.0000
H2  H  1.0000  0.35050  0.54196  0.50345  0.0000
H3  H  1.0000  0.35174  0.54345  0.56269  0.0000
H4  H  1.0000  0.41809  0.49633  0.52128  0.0000
H5  H  1.0000  0.49474  0.54622  0.55465  0.0000
H6  H  1.0000  0.53403  0.47263  0.54865  0.0000
H7  H  1.0000  0.48800  0.44957  0.52016  0.0000
H8  H  1.0000  0.48223  0.46670  0.57734  0.0000
H9  H  1.0000  0.49076  0.59783  0.49763  0.0000
H10  H  1.0000  0.55996  0.57908  0.42939  0.0000
H11  H  1.0000  0.50598  0.58806  0.40679  0.0000
H12  H  1.0000  0.53215  0.63099  0.43904  0.0000
C1  C  1.0000  0.36308  0.56072  0.53236  0.0000
C2  C  1.0000  0.41350  0.56405  0.53188  0.0000
C3  C  1.0000  0.48430  0.52111  0.52993  0.0000
C4  C  1.0000  0.49767  0.47465  0.54508  0.0000
C5  C  1.0000  0.50660  0.53308  0.48483  0.0000
C6  C  1.0000  0.52752  0.59486  0.43577  0.0000
N1  N  1.0000  0.43570  0.52474  0.52690  0.0000
N2  N  1.0000  0.50876  0.57754  0.47686  0.0000
O1  O  1.0000  0.43353  0.60004  0.53652  0.0000
O2  O  1.0000  0.52134  0.50440  0.45911  0.0000
